REMARK  7 active torsions:
REMARK  status: ('A' for Active; 'I' for Inactive)
REMARK       I    between atoms: N_2  and  C_3 
REMARK    1  A    between atoms: C_3  and  C_5 
REMARK    2  A    between atoms: C_5  and  C_6 
REMARK    3  A    between atoms: C_5  and  N_25 
REMARK    4  A    between atoms: C_6  and  C_7 
REMARK       I    between atoms: N_10  and  C_11 
REMARK    5  A    between atoms: C_11  and  C_13 
REMARK    6  A    between atoms: C_15  and  C_16 
REMARK       I    between atoms: N_25  and  C_26 
REMARK    7  A    between atoms: C_26  and  C_28 
ROOT
ATOM      1  C           0       1.377  -2.671  -0.131  0.00  0.00     0.039 C 
ENDROOT
BRANCH   1   2
ATOM      2  C           0       2.298  -1.732   0.651  0.00  0.00     0.177 C 
BRANCH   2   3
ATOM      3  C           0       3.265  -2.545   1.471  0.00  0.00     0.240 C 
ATOM      4  N           0       2.805  -3.401   2.405  0.00  0.00    -0.364 N 
ATOM      5  C           0       3.745  -4.192   3.202  0.00  0.00     0.149 C 
ATOM      6  H           0       1.850  -3.493   2.549  0.00  0.00     0.161 HD
ATOM      7  O           0       4.459  -2.430   1.291  0.00  0.00    -0.271 OA
ENDBRANCH   2   3
BRANCH   2   8
ATOM      8  N           0       3.042  -0.886  -0.286  0.00  0.00    -0.346 N 
ATOM      9  C           0       3.510   0.313   0.115  0.00  0.00     0.241 C 
ATOM     10  O           0       3.315   0.691   1.250  0.00  0.00    -0.271 OA
ATOM     11  H           0       3.198  -1.189  -1.194  0.00  0.00     0.163 HD
BRANCH   9  12
ATOM     12  C           0       4.275   1.183  -0.849  0.00  0.00     0.176 C 
ATOM     13  N           0       4.248   2.562  -0.378  0.00  0.00    -0.348 N 
ATOM     14  C           0       5.288   3.392  -0.427  0.00  0.00     0.218 C 
ATOM     15  H           0       3.416   2.898  -0.010  0.00  0.00     0.163 HD
ATOM     16  C           0       6.645   2.988  -0.926  0.00  0.00     0.103 C 
ATOM     17  O           0       5.132   4.532  -0.046  0.00  0.00    -0.274 OA
ATOM     18  C           0       6.537   1.701  -1.747  0.00  0.00     0.012 C 
ATOM     19  C           0       5.717   0.683  -0.946  0.00  0.00     0.035 C 
ENDBRANCH   9  12
ENDBRANCH   2   8
ENDBRANCH   1   2
BRANCH   1  20
ATOM     20  C           0       0.315  -1.850  -0.866  0.00  0.00    -0.009 C 
ATOM     21  C           0      -0.587  -1.153   0.156  0.00  0.00     0.024 C 
ATOM     22  C           0      -1.627  -0.304  -0.583  0.00  0.00     0.126 C 
ATOM     23  N           0      -2.344  -1.160  -1.537  0.00  0.00    -0.347 N 
ATOM     24  C           0      -1.566  -1.945  -2.505  0.00  0.00     0.126 C 
ATOM     25  C           0      -3.690  -1.224  -1.525  0.00  0.00     0.272 C 
ATOM     26  C           0      -0.527  -2.776  -1.745  0.00  0.00     0.024 C 
ATOM     27  O           0      -4.267  -2.038  -2.221  0.00  0.00    -0.266 OA
BRANCH  25  28
ATOM     28  C           0      -4.463  -0.309  -0.669  0.00  0.00     0.122 A 
ATOM     29  N           0      -5.733  -0.497  -0.204  0.00  0.00    -0.269 N 
ATOM     30  N           0      -6.082   0.507   0.516  0.00  0.00    -0.176 NA
ATOM     31  C           0      -6.566  -1.671  -0.476  0.00  0.00     0.180 C 
ATOM     32  C           0      -5.124   1.397   0.573  0.00  0.00     0.065 A 
ATOM     33  C           0      -4.049   0.918  -0.180  0.00  0.00     0.066 A 
BRANCH  32  34
ATOM     34  C           0      -5.173   2.707   1.317  0.00  0.00    -0.005 C 
ATOM     35  C           0      -5.357   3.853   0.320  0.00  0.00     0.021 C 
ATOM     36  C           0      -6.345   2.692   2.300  0.00  0.00     0.021 C 
ATOM     37  C           0      -3.865   2.905   2.085  0.00  0.00     0.021 C 
ENDBRANCH  32  34
ENDBRANCH  25  28
ENDBRANCH   1  20
TORSDOF 7
