MODEL 1
REMARK VINA RESULT:      -9.2      0.000      0.000
REMARK  7 active torsions:
REMARK  status: ('A' for Active; 'I' for Inactive)
REMARK       I    between atoms: N_2  and  C_3 
REMARK    1  A    between atoms: C_3  and  C_5 
REMARK    2  A    between atoms: C_5  and  C_6 
REMARK    3  A    between atoms: C_5  and  N_25 
REMARK    4  A    between atoms: C_6  and  C_7 
REMARK       I    between atoms: N_10  and  C_11 
REMARK    5  A    between atoms: C_11  and  C_13 
REMARK    6  A    between atoms: C_15  and  C_16 
REMARK       I    between atoms: N_25  and  C_26 
REMARK    7  A    between atoms: C_26  and  C_28 
ROOT
ATOM      1  C           0       1.670   2.496 -11.807  0.00  0.00     0.039 C 
ENDROOT
BRANCH   1   2
ATOM      2  C           0       0.573   2.845 -10.799  0.00  0.00     0.177 C 
BRANCH   2   3
ATOM      3  C           0      -0.477   1.765 -10.806  0.00  0.00     0.240 C 
ATOM      4  N           0      -1.725   2.040 -11.237  0.00  0.00    -0.364 N 
ATOM      5  C           0      -2.746   0.990 -11.245  0.00  0.00     0.149 C 
ATOM      6  H           0      -1.946   2.933 -11.542  0.00  0.00     0.161 HD
ATOM      7  O           0      -0.201   0.648 -10.425  0.00  0.00    -0.271 OA
ENDBRANCH   2   3
BRANCH   2   8
ATOM      8  N           0       1.156   2.950  -9.459  0.00  0.00    -0.346 N 
ATOM      9  C           0       1.383   4.164  -8.917  0.00  0.00     0.241 C 
ATOM     10  O           0       1.105   5.167  -9.538  0.00  0.00    -0.271 OA
ATOM     11  H           0       1.379   2.148  -8.962  0.00  0.00     0.163 HD
BRANCH   9  12
ATOM     12  C           0       1.984   4.272  -7.539  0.00  0.00     0.176 C 
ATOM     13  N           0       3.437   4.254  -7.645  0.00  0.00    -0.348 N 
ATOM     14  C           0       4.252   5.022  -6.925  0.00  0.00     0.218 C 
ATOM     15  H           0       3.837   3.637  -8.278  0.00  0.00     0.163 HD
ATOM     16  C           0       3.766   6.052  -5.947  0.00  0.00     0.103 C 
ATOM     17  O           0       5.448   4.885  -7.068  0.00  0.00    -0.274 OA
ATOM     18  C           0       2.304   5.781  -5.586  0.00  0.00     0.012 C 
ATOM     19  C           0       1.516   5.573  -6.885  0.00  0.00     0.035 C 
ENDBRANCH   9  12
ENDBRANCH   2   8
ENDBRANCH   1   2
BRANCH   1  20
ATOM     20  C           0       1.655   3.512 -12.951  0.00  0.00    -0.009 C 
ATOM     21  C           0       0.208   3.776 -13.378  0.00  0.00     0.024 C 
ATOM     22  C           0       0.194   4.820 -14.500  0.00  0.00     0.126 C 
ATOM     23  N           0       1.069   4.359 -15.585  0.00  0.00    -0.347 N 
ATOM     24  C           0       2.456   3.991 -15.267  0.00  0.00     0.126 C 
ATOM     25  C           0       0.610   4.275 -16.849  0.00  0.00     0.272 C 
ATOM     26  C           0       2.445   2.956 -14.137  0.00  0.00     0.024 C 
ATOM     27  O           0       1.294   3.761 -17.713  0.00  0.00    -0.266 OA
BRANCH  25  28
ATOM     28  C           0      -0.722   4.804 -17.185  0.00  0.00     0.122 A 
ATOM     29  N           0      -1.022   6.073 -17.590  0.00  0.00    -0.269 N 
ATOM     30  N           0      -2.285   6.173 -17.797  0.00  0.00    -0.176 NA
ATOM     31  C           0      -0.049   7.153 -17.772  0.00  0.00     0.180 C 
ATOM     32  C           0      -2.891   5.040 -17.548  0.00  0.00     0.065 A 
ATOM     33  C           0      -1.923   4.116 -17.146  0.00  0.00     0.066 A 
BRANCH  32  34
ATOM     34  C           0      -4.370   4.779 -17.671  0.00  0.00    -0.005 C 
ATOM     35  C           0      -4.790   3.730 -16.639  0.00  0.00     0.021 C 
ATOM     36  C           0      -5.140   6.077 -17.422  0.00  0.00     0.021 C 
ATOM     37  C           0      -4.681   4.263 -19.077  0.00  0.00     0.021 C 
ENDBRANCH  32  34
ENDBRANCH  25  28
ENDBRANCH   1  20
TORSDOF 7
ENDMDL
